* example current controlled switch
.subckt voltswitch 1 2 3 4
*the switch instance
S1 3 4 1 2 myswitch
*the switch model
.model myswitch sw vt=1 vh=0.2 ron=1 roff=10k
.ends
